  Page 1                                    Wed Jul  8 15:48:58 2026

  ******************************************************************
  *                           E P A N E T                          *
  *                   Hydraulic and Water Quality                  *
  *                   Analysis for Pipe Networks                   *
  *                          Version 2.3.06                        *
  ******************************************************************
  
  Minimal EPANET metric hello world: reservoir to junction
   
      Input Data File ................... epanet_minimal.inp
      Number of Junctions................ 1
      Number of Reservoirs............... 1
      Number of Tanks ................... 0
      Number of Pipes ................... 1
      Number of Pumps ................... 0
      Number of Valves .................. 0
      Headloss Formula .................. Hazen-Williams
      Nodal Demand Model ................ DDA
      Hydraulic Timestep ................ 1.00 hrs
      Hydraulic Accuracy ................ 0.001000
      Status Check Frequency ............ 2
      Maximum Trials Checked ............ 10
      Damping Limit Threshold ........... 0.000000
      Maximum Trials .................... 200
      Quality Analysis .................. None
      Specific Gravity .................. 1.00
      Relative Kinematic Viscosity ...... 1.00
      Relative Chemical Diffusivity ..... 1.00
      Demand Multiplier ................. 1.00
      Total Duration .................... 0.00 hrs
      Reporting Criteria:
         All Nodes
         All Links
   
  Analysis begun Wed Jul  8 15:48:58 2026

   
  Hydraulic Status:
  -----------------------------------------------------------------------
     0:00:00: Balanced after 2 trials
     0:00:00: Reservoir R1 is emptying
   
  Hydraulic Flow Balance (L/s)
  ================================
  Total Inflow:             1.000
  Consumer Demand:          1.000
  Demand Deficit:           0.000
  Emitter Flow:             0.000
  Leakage Flow:             0.000
  Total Outflow:            1.000
  Storage Flow:             0.000
  Flow Ratio:               1.000
  ================================

  Analysis ended Wed Jul  8 15:48:58 2026

   
  Node Results:
  ----------------------------------------------
                     Demand      Head  Pressure
  Node                  L/s         m    METERS
  ----------------------------------------------
  J1                   1.00     30.00     30.00
  R1                  -1.00     30.00     -0.00  Reservoir
   
   
  Link Results:
  ----------------------------------------------
                       Flow  Velocity  Headloss
  Link                  L/s       m/s    /1000m
  ----------------------------------------------
  P1                   1.00      0.06      0.04
   